# created with PyMOL 3.1.5.1
@<TRIPOS>MOLECULE
obj01
27 27 1                 
SMALL
USER_CHARGES
@<TRIPOS>ATOM
1	   C	-34.332	-12.536	28.373	C.2	1	BEN818	0.000	
2	 P01	-27.158	-9.286	27.635	P.3	1	BEN818	0.000	
3	  C1	-33.172	-11.598	28.004	C.2	1	BEN818	0.000	
4	  N1	-35.160	-12.271	29.345	N.2	1	BEN818	0.000	
5	 O01	-27.300	-9.746	29.066	O.2	1	BEN818	0.000	
6	  C2	-32.255	-11.889	26.936	C.2	1	BEN818	0.000	
7	  N2	-34.562	-13.664	27.742	N.pl3	1	BEN818	0.000	
8	 O04	-26.055	-10.307	27.025	O.3	1	BEN818	0.000	
9	  C3	-31.178	-11.029	26.590	C.2	1	BEN818	0.000	
10	 O03	-26.552	-7.929	27.373	O.2	1	BEN818	0.000	
11	  C4	-30.966	-9.819	27.306	C.2	1	BEN818	0.000	
12	  C5	-31.850	-9.493	28.368	C.2	1	BEN818	0.000	
13	  C6	-32.927	-10.370	28.702	C.2	1	BEN818	0.000	
14	 C01	-28.573	-9.721	26.543	C.3	1	BEN818	0.000	
15	 C02	-29.802	-8.881	26.937	C.3	1	BEN818	0.000	
16	 H01	-35.052	-11.423	29.883	 H	1	BEN818	0.000	
17	 H02	-32.392	-12.809	26.368	 H	1	BEN818	0.000	
18	 H03	-33.965	-13.945	26.977	 H	1	BEN818	0.000	
19	 H04	-35.335	-14.250	28.021	 H	1	BEN818	0.000	
20	 H05	-30.511	-11.298	25.771	 H	1	BEN818	0.000	
21	 H06	-29.554	-8.255	27.794	 H	1	BEN818	0.000	
22	 H07	-31.706	-8.570	28.931	 H	1	BEN818	0.000	
23	 H08	-33.590	-10.095	29.523	 H	1	BEN818	0.000	
24	 H09	-30.095	-8.250	26.098	 H	1	BEN818	0.000	
25	 H10	-28.805	-10.780	26.653	 H	1	BEN818	0.000	
26	 H11	-28.309	-9.515	25.505	 H	1	BEN818	0.000	
27	 H15	-25.265	-10.129	27.565	 H	1	BEN818	0.000	
@<TRIPOS>BOND
1 2 8 1
2 2 10 2
3 1 3 1
4 1 4 2
5 4 16 1
6 2 5 2
7 3 6 2
8 6 17 1
9 1 7 1
10 7 18 1
11 7 19 1
12 8 27 1
13 6 9 1
14 9 20 1
15 9 11 2
16 11 15 1
17 11 12 1
18 12 22 1
19 3 13 1
20 12 13 2
21 13 23 1
22 2 14 1
23 14 25 1
24 14 26 1
25 14 15 1
26 15 21 1
27 15 24 1
@<TRIPOS>SUBSTRUCTURE
1	BEN818	1	GROUP	1 A	BEN
