# created with PyMOL 3.1.5.1
@<TRIPOS>MOLECULE
benzamidine_mod
28 28 1                 
SMALL
USER_CHARGES
@<TRIPOS>ATOM
1	   C	-34.332	-12.536	28.373	C.2	1	BEN818	0.000	
2	 P01	-27.158	-9.286	27.635	P.3	1	BEN818	0.000	
3	 C01	-28.573	-9.721	26.543	C.3	1	BEN818	0.000	
4	  C1	-33.172	-11.598	28.004	C.2	1	BEN818	0.000	
5	  N1	-35.160	-12.271	29.345	N.pl3	1	BEN818	0.000	
6	 O01	-27.300	-9.746	29.066	O.2	1	BEN818	0.000	
7	 C02	-29.802	-8.881	26.937	C.3	1	BEN818	0.000	
8	  C2	-32.255	-11.889	26.936	C.2	1	BEN818	0.000	
9	  N2	-34.562	-13.664	27.742	N.pl3	1	BEN818	0.000	
10	  C3	-31.178	-11.029	26.590	C.2	1	BEN818	0.000	
11	 O03	-26.552	-7.929	27.373	O.2	1	BEN818	0.000	
12	  C4	-30.966	-9.819	27.306	C.2	1	BEN818	0.000	
13	 O04	-26.055	-10.307	27.025	O.3	1	BEN818	0.000	
14	  C5	-31.850	-9.493	28.368	C.2	1	BEN818	0.000	
15	  C6	-32.927	-10.370	28.702	C.2	1	BEN818	0.000	
16	 H01	-35.909	-12.914	29.559	 H	1	BEN818	0.000	
17	 H03	-33.965	-13.946	26.977	 H	1	BEN818	0.000	
18	 H04	-35.336	-14.250	28.021	 H	1	BEN818	0.000	
19	 H12	-35.052	-11.423	29.883	 H	1	BEN818	0.000	
20	 H02	-32.392	-12.809	26.368	 H	1	BEN818	0.000	
21	 H05	-30.511	-11.298	25.771	 H	1	BEN818	0.000	
22	 H06	-29.554	-8.255	27.794	 H	1	BEN818	0.000	
23	 H07	-31.706	-8.570	28.931	 H	1	BEN818	0.000	
24	 H08	-33.590	-10.095	29.523	 H	1	BEN818	0.000	
25	 H09	-30.095	-8.250	26.098	 H	1	BEN818	0.000	
26	 H10	-28.805	-10.780	26.653	 H	1	BEN818	0.000	
27	 H11	-28.309	-9.515	25.505	 H	1	BEN818	0.000	
28	 H15	-25.265	-10.129	27.565	 H	1	BEN818	0.000	
@<TRIPOS>BOND
1 1 4 1
2 1 5 ar
3 1 9 ar
4 2 3 1
5 2 6 2
6 2 11 2
7 2 13 1
8 3 7 1
9 3 26 1
10 3 27 1
11 4 8 ar
12 4 15 ar
13 5 16 1
14 5 19 1
15 7 12 1
16 7 22 1
17 7 25 1
18 8 10 ar
19 8 20 1
20 9 17 1
21 9 18 1
22 10 12 ar
23 10 21 1
24 12 14 ar
25 13 28 1
26 14 15 ar
27 14 23 1
28 15 24 1
@<TRIPOS>SUBSTRUCTURE
1	BEN818	1	GROUP	1 A	BEN
