# created with PyMOL 3.1.3.1
@<TRIPOS>MOLECULE
obj01
18 18 1                 
SMALL
USER_CHARGES
@<TRIPOS>ATOM
1	 C01	1.405	-0.000	0.000	C.2	1	UNK1	0.000	
2	 C07	1.372	2.377	0.000	C.2	1	UNK1	0.000	
3	 C02	0.702	1.216	0.000	C.2	1	UNK1	0.000	
4	 C03	-0.702	1.216	0.000	C.2	1	UNK1	0.000	
5	 C04	-1.404	-0.000	0.000	C.2	1	UNK1	0.000	
6	 C05	-0.702	-1.216	0.000	C.2	1	UNK1	0.000	
7	 C06	0.702	-1.216	0.000	C.2	1	UNK1	0.000	
8	 H01	3.272	1.349	0.000	 H	1	UNK1	0.000	
9	 H02	1.288	4.535	0.000	 H	1	UNK1	0.000	
10	 H03	3.410	3.093	0.000	 H	1	UNK1	0.000	
11	 H04	-0.283	3.765	0.000	 H	1	UNK1	0.000	
12	 N01	0.725	3.697	0.000	N.pl3	1	UNK1	0.000	
13	 N02	2.838	2.261	0.000	N.pl3	1	UNK1	0.000	
14	 H07	2.508	-0.000	0.000	 H	1	UNK1	0.000	
15	 H09	-1.254	2.172	0.000	 H	1	UNK1	0.000	
16	 H10	-2.508	-0.000	0.000	 H	1	UNK1	0.000	
17	 H11	-1.254	-2.172	0.000	 H	1	UNK1	0.000	
18	 H12	1.254	-2.172	0.000	 H	1	UNK1	0.000	
@<TRIPOS>BOND
1 1 3 2
2 1 7 1
3 1 14 1
4 2 12 ar
5 2 13 ar
6 2 3 1
7 3 4 1
8 4 5 2
9 4 15 1
10 5 6 1
11 5 16 1
12 6 7 2
13 6 17 1
14 7 18 1
15 9 12 1
16 11 12 1
17 8 13 1
18 10 13 1
@<TRIPOS>SUBSTRUCTURE
1	UNK1	1	GROUP	1 ****	UNK
